  0
SECTION
  2
ENTITIES
999
DXF created from EnergyPlus
999
Program Version,EnergyPlus, Version 9.0.1-bb7ca4f0da, YMD=2020.04.21 16:08
999
Polygon Action,TRIANGULATE3DFACE
999
Color Scheme,Default
999
Text - True North
  0
TEXT
  8
1
  6
Continuous
 62
  3
 10
      -19.10323
 20
       -3.55337
 30
        0.10000
 40
 .25
  1
True North
 41
 0.0
  7
MONOTXT
210
0.0
220
0.0
230
1.0
999
Text - Building Title
  0
TEXT
  8
1
  6
Continuous
 62
  3
 10
      -22.10323
 20
       -7.55337
 30
        0.10000
 40
 .4
  1
Building - Building
 41
 0.0
  7
MONOTXT
210
0.0
220
0.0
230
1.0
999
North Arrow Stem
  0
3DFACE
  8
1
 62
  3
 10
      -18.10323
 20
       -3.55337
 30
        0.10000
 11
      -18.10323
 21
       -3.55337
 31
        0.00000
 12
      -18.10323
 22
       -6.55337
 32
        0.00000
 13
      -18.10323
 23
       -6.55337
 33
        0.10000
999
North Arrow Head 1
  0
3DFACE
  8
1
 62
  3
 10
      -18.10323
 20
       -3.55337
 30
        0.10000
 11
      -18.10323
 21
       -3.55337
 31
        0.00000
 12
      -18.60323
 22
       -4.41940
 32
        0.00000
 13
      -18.60323
 23
       -4.41940
 33
        0.10000
999
North Arrow Head 2
  0
3DFACE
  8
1
 62
  3
 10
      -18.10323
 20
       -3.55337
 30
        0.10000
 11
      -18.10323
 21
       -3.55337
 31
        0.00000
 12
      -17.60323
 22
       -4.41940
 32
        0.00000
 13
      -17.60323
 23
       -4.41940
 33
        0.10000
999
North Arrow Side 1
  0
3DFACE
  8
1
 62
  3
 10
      -18.60323
 20
       -2.05337
 30
        0.10000
 11
      -18.60323
 21
       -2.05337
 31
        0.00000
 12
      -18.60323
 22
       -3.05337
 32
        0.00000
 13
      -18.60323
 23
       -3.05337
 33
        0.10000
999
North Arrow Side 2
  0
3DFACE
  8
1
 62
  3
 10
      -18.60323
 20
       -2.05337
 30
        0.10000
 11
      -18.60323
 21
       -2.05337
 31
        0.00000
 12
      -17.60323
 22
       -3.05337
 32
        0.00000
 13
      -17.60323
 23
       -3.05337
 33
        0.10000
999
North Arrow Side 3
  0
3DFACE
  8
1
 62
  3
 10
      -17.60323
 20
       -2.05337
 30
        0.10000
 11
      -17.60323
 21
       -2.05337
 31
        0.00000
 12
      -17.60323
 22
       -3.05337
 32
        0.00000
 13
      -17.60323
 23
       -3.05337
 33
        0.10000
999
Zone Names
999
Zone=1:BLOCCO1_CORRIDOIO
999
Zone=2:BLOCCO1_ROOM407
999
Zone=3:BLOCCO1_ROOM408
999
Building Shading:EDIFICIO 1 - BLOCCO COMPONENTE 3 - SURFACE 2 (1)
  0
3DFACE
  8
Building Shading
 62
195
 10
       -8.10323
 20
       11.44663
 30
       -0.44268
 11
       -0.10323
 21
       11.44663
 31
       -0.44268
 12
       -0.10323
 22
       -6.55337
 32
       -0.44268
 13
       -8.10323
 23
       -6.55337
 33
       -0.44268
999
Building Shading:Mir-EDIFICIO 1 - BLOCCO COMPONENTE 3 - SURFACE 2 (1)
  0
3DFACE
  8
Building Shading
 62
195
 10
       -8.10323
 20
       -6.55337
 30
       -0.44268
 11
       -0.10323
 21
       -6.55337
 31
       -0.44268
 12
       -0.10323
 22
       11.44663
 32
       -0.44268
 13
       -8.10323
 23
       11.44663
 33
       -0.44268
999
Building Shading:EDIFICIO 1 - BLOCCO COMPONENTE 1 - SURFACE 1 (2)
  0
3DFACE
  8
Building Shading
 62
195
 10
        0.15207
 20
       -6.55337
 30
        3.50000
 11
        0.15207
 21
       -6.55337
 31
        0.00000
 12
        0.15207
 22
       11.44663
 32
        0.00000
 13
        0.15207
 23
       11.44663
 33
        3.50000
999
Building Shading:Mir-EDIFICIO 1 - BLOCCO COMPONENTE 1 - SURFACE 1 (2)
  0
3DFACE
  8
Building Shading
 62
195
 10
        0.15207
 20
       11.44663
 30
        3.50000
 11
        0.15207
 21
       11.44663
 31
        0.00000
 12
        0.15207
 22
       -6.55337
 32
        0.00000
 13
        0.15207
 23
       -6.55337
 33
        3.50000
999
Building Shading:EDIFICIO 1 - BLOCCO COMPONENTE 2 - SURFACE 1 (3)
  0
3DFACE
  8
Building Shading
 62
195
 10
       -8.10323
 20
       -6.55337
 30
        3.50000
 11
       -8.10323
 21
       -6.55337
 31
        0.00000
 12
       -8.10323
 22
       11.44663
 32
        0.00000
 13
       -8.10323
 23
       11.44663
 33
        3.50000
999
Building Shading:Mir-EDIFICIO 1 - BLOCCO COMPONENTE 2 - SURFACE 1 (3)
  0
3DFACE
  8
Building Shading
 62
195
 10
       -8.10323
 20
       11.44663
 30
        3.50000
 11
       -8.10323
 21
       11.44663
 31
        0.00000
 12
       -8.10323
 22
       -6.55337
 32
        0.00000
 13
       -8.10323
 23
       -6.55337
 33
        3.50000
999
BLOCCO1:CORRIDOIO:BLOCCO1:CORRIDOIO_PARTITION_2_0_0
  0
3DFACE
  8
BLOCCO1_CORRIDOIO
 62
 43
 10
       -0.10323
 20
        3.45152
 30
        3.50000
 11
       -0.10323
 21
        3.45152
 31
        0.00000
 12
       -8.10323
 22
        3.45152
 32
        0.00000
 13
       -8.10323
 23
        3.45152
 33
        3.50000
999
BLOCCO1:CORRIDOIO:BLOCCO1:CORRIDOIO_PARTITION_2_0_0_0_0_0_DOOR
  0
3DFACE
  8
BLOCCO1_CORRIDOIO
 62
 45
 10
       -0.28000
 20
       -0.00000
 30
        1.53000
 11
       -0.28000
 21
       -0.00000
 31
        0.67000
 12
       -0.62000
 22
       -0.00000
 32
        0.67000
 13
       -0.62000
 23
       -0.00000
 33
        1.53000
999
BLOCCO1:CORRIDOIO:BLOCCO1:CORRIDOIO_PARTITION_3_0_0
  0
3DFACE
  8
BLOCCO1_CORRIDOIO
 62
 43
 10
       -8.10323
 20
        3.45152
 30
        3.50000
 11
       -8.10323
 21
        3.45152
 31
        0.00000
 12
       -8.10323
 22
        1.44215
 32
        0.00000
 13
       -8.10323
 23
        1.44215
 33
        3.50000
999
BLOCCO1:CORRIDOIO:BLOCCO1:CORRIDOIO_PARTITION_4_0_0
  0
3DFACE
  8
BLOCCO1_CORRIDOIO
 62
 43
 10
       -8.10323
 20
        1.44215
 30
        3.50000
 11
       -8.10323
 21
        1.44215
 31
        0.00000
 12
       -0.10323
 22
        1.44215
 32
        0.00000
 13
       -0.10323
 23
        1.44215
 33
        3.50000
999
BLOCCO1:CORRIDOIO:BLOCCO1:CORRIDOIO_PARTITION_4_0_0_0_0_0_DOOR
  0
3DFACE
  8
BLOCCO1_CORRIDOIO
 62
 45
 10
       -0.62000
 20
       -0.00000
 30
        1.53000
 11
       -0.62000
 21
       -0.00000
 31
        0.67000
 12
       -0.28000
 22
       -0.00000
 32
        0.67000
 13
       -0.28000
 23
       -0.00000
 33
        1.53000
999
BLOCCO1:CORRIDOIO:BLOCCO1:CORRIDOIO_PARTITION_5_0_0
  0
3DFACE
  8
BLOCCO1_CORRIDOIO
 62
 43
 10
       -0.10323
 20
        1.44215
 30
        3.50000
 11
       -0.10323
 21
        1.44215
 31
        0.00000
 12
       -0.10323
 22
        3.45152
 32
        0.00000
 13
       -0.10323
 23
        3.45152
 33
        3.50000
999
BLOCCO1:CORRIDOIO:BLOCCO1:CORRIDOIO_FLOOR_0_0_0
  0
3DFACE
  8
BLOCCO1_CORRIDOIO
 62
  8
 10
       -8.10323
 20
        3.45152
 30
        0.00000
 11
       -0.10323
 21
        3.45152
 31
        0.00000
 12
       -0.10323
 22
        1.44215
 32
        0.00000
 13
       -8.10323
 23
        1.44215
 33
        0.00000
999
BLOCCO1:CORRIDOIO:BLOCCO1:CORRIDOIO_ROOF_1_0_0
  0
3DFACE
  8
BLOCCO1_CORRIDOIO
 62
 15
 10
       -8.10323
 20
        1.44215
 30
        3.50000
 11
       -0.10323
 21
        1.44215
 31
        3.50000
 12
       -0.10323
 22
        3.45152
 32
        3.50000
 13
       -8.10323
 23
        3.45152
 33
        3.50000
999
BLOCCO1:ROOM407:BLOCCO1:ROOM407_PARTITION_4_0_10001
  0
3DFACE
  8
BLOCCO1_ROOM407
 62
 43
 10
       -8.10323
 20
        3.45152
 30
        3.50000
 11
       -8.10323
 21
        3.45152
 31
        0.00000
 12
       -0.10323
 22
        3.45152
 32
        0.00000
 13
       -0.10323
 23
        3.45152
 33
        3.50000
999
BLOCCO1:ROOM407:BLOCCO1:ROOM407_PARTITION_4_0_0_0_0_0_DOOR_10003
  0
3DFACE
  8
BLOCCO1_ROOM407
 62
 45
 10
       -0.62000
 20
       -0.00000
 30
        1.53000
 11
       -0.62000
 21
       -0.00000
 31
        0.67000
 12
       -0.28000
 22
       -0.00000
 32
        0.67000
 13
       -0.28000
 23
       -0.00000
 33
        1.53000
999
BLOCCO1:ROOM407:BLOCCO1:ROOM407_WALL_2_0_0
  0
3DFACE
  8
BLOCCO1_ROOM407
 62
 43
 10
       -0.10323
 20
       11.44663
 30
        3.50000
 11
       -0.10323
 21
       11.44663
 31
        0.00000
 12
       -8.10323
 22
       11.44663
 32
        0.00000
 13
       -8.10323
 23
       11.44663
 33
        3.50000
999
BLOCCO1:ROOM407:BLOCCO1:ROOM407_WALL_2_0_0_0_0_0_WIN
  0
3DFACE
  8
BLOCCO1_ROOM407
 62
143
 10
       -1.61000
 20
       -0.00000
 30
        0.98000
 11
       -1.61000
 21
       -0.00000
 31
        0.44000
 12
       -3.65000
 22
       -0.00000
 32
        0.44000
 13
       -3.65000
 23
       -0.00000
 33
        0.98000
999
BLOCCO1:ROOM407:BLOCCO1:ROOM407_PARTITION_3_0_0
  0
3DFACE
  8
BLOCCO1_ROOM407
 62
 43
 10
       -8.10323
 20
       11.44663
 30
        3.50000
 11
       -8.10323
 21
       11.44663
 31
        0.00000
 12
       -8.10323
 22
        3.45152
 32
        0.00000
 13
       -8.10323
 23
        3.45152
 33
        3.50000
999
BLOCCO1:ROOM407:BLOCCO1:ROOM407_PARTITION_5_0_0
  0
3DFACE
  8
BLOCCO1_ROOM407
 62
 43
 10
       -0.10323
 20
        3.45152
 30
        3.50000
 11
       -0.10323
 21
        3.45152
 31
        0.00000
 12
       -0.10323
 22
       11.44663
 32
        0.00000
 13
       -0.10323
 23
       11.44663
 33
        3.50000
999
BLOCCO1:ROOM407:BLOCCO1:ROOM407_FLOOR_0_0_0
  0
3DFACE
  8
BLOCCO1_ROOM407
 62
  8
 10
       -8.10323
 20
       11.44663
 30
        0.00000
 11
       -0.10323
 21
       11.44663
 31
        0.00000
 12
       -0.10323
 22
        3.45152
 32
        0.00000
 13
       -8.10323
 23
        3.45152
 33
        0.00000
999
BLOCCO1:ROOM407:BLOCCO1:ROOM407_ROOF_1_0_0
  0
3DFACE
  8
BLOCCO1_ROOM407
 62
 15
 10
       -8.10323
 20
        3.45152
 30
        3.50000
 11
       -0.10323
 21
        3.45152
 31
        3.50000
 12
       -0.10323
 22
       11.44663
 32
        3.50000
 13
       -8.10323
 23
       11.44663
 33
        3.50000
999
BLOCCO1:ROOM408:BLOCCO1:ROOM408_PARTITION_2_0_10004
  0
3DFACE
  8
BLOCCO1_ROOM408
 62
 43
 10
       -0.10323
 20
        1.44215
 30
        3.50000
 11
       -0.10323
 21
        1.44215
 31
        0.00000
 12
       -8.10323
 22
        1.44215
 32
        0.00000
 13
       -8.10323
 23
        1.44215
 33
        3.50000
999
BLOCCO1:ROOM408:BLOCCO1:ROOM408_PARTITION_2_0_0_0_0_0_DOOR_10006
  0
3DFACE
  8
BLOCCO1_ROOM408
 62
 45
 10
       -0.28000
 20
       -0.00000
 30
        1.53000
 11
       -0.28000
 21
       -0.00000
 31
        0.67000
 12
       -0.62000
 22
       -0.00000
 32
        0.67000
 13
       -0.62000
 23
       -0.00000
 33
        1.53000
999
BLOCCO1:ROOM408:BLOCCO1:ROOM408_PARTITION_3_0_0
  0
3DFACE
  8
BLOCCO1_ROOM408
 62
 43
 10
       -8.10323
 20
        1.44215
 30
        3.50000
 11
       -8.10323
 21
        1.44215
 31
        0.00000
 12
       -8.10323
 22
       -6.55337
 32
        0.00000
 13
       -8.10323
 23
       -6.55337
 33
        3.50000
999
BLOCCO1:ROOM408:BLOCCO1:ROOM408_WALL_4_0_0
  0
3DFACE
  8
BLOCCO1_ROOM408
 62
 43
 10
       -8.10323
 20
       -6.55337
 30
        3.50000
 11
       -8.10323
 21
       -6.55337
 31
        0.00000
 12
       -0.10323
 22
       -6.55337
 32
        0.00000
 13
       -0.10323
 23
       -6.55337
 33
        3.50000
999
BLOCCO1:ROOM408:BLOCCO1:ROOM408_WALL_4_0_0_0_0_0_WIN
  0
3DFACE
  8
BLOCCO1_ROOM408
 62
143
 10
       -3.65000
 20
       -0.00000
 30
        0.98000
 11
       -3.65000
 21
       -0.00000
 31
        0.44000
 12
       -1.61000
 22
       -0.00000
 32
        0.44000
 13
       -1.61000
 23
       -0.00000
 33
        0.98000
999
BLOCCO1:ROOM408:BLOCCO1:ROOM408_PARTITION_5_0_0
  0
3DFACE
  8
BLOCCO1_ROOM408
 62
 43
 10
       -0.10323
 20
       -6.55337
 30
        3.50000
 11
       -0.10323
 21
       -6.55337
 31
        0.00000
 12
       -0.10323
 22
        1.44215
 32
        0.00000
 13
       -0.10323
 23
        1.44215
 33
        3.50000
999
BLOCCO1:ROOM408:BLOCCO1:ROOM408_FLOOR_0_0_0
  0
3DFACE
  8
BLOCCO1_ROOM408
 62
  8
 10
       -8.10323
 20
        1.44215
 30
        0.00000
 11
       -0.10323
 21
        1.44215
 31
        0.00000
 12
       -0.10323
 22
       -6.55337
 32
        0.00000
 13
       -8.10323
 23
       -6.55337
 33
        0.00000
999
BLOCCO1:ROOM408:BLOCCO1:ROOM408_ROOF_1_0_0
  0
3DFACE
  8
BLOCCO1_ROOM408
 62
 15
 10
       -8.10323
 20
       -6.55337
 30
        3.50000
 11
       -0.10323
 21
       -6.55337
 31
        3.50000
 12
       -0.10323
 22
        1.44215
 32
        3.50000
 13
       -8.10323
 23
        1.44215
 33
        3.50000
999
BLOCCO1:CORRIDOIO:DayRefPt:1
  0
CIRCLE
  8
BLOCCO1_CORRIDOIO
 62
 10
 10
       -4.10300
 20
        2.44700
 30
        0.90000
 40
        0.20000
999
BLOCCO1:ROOM407:DayRefPt:1
  0
CIRCLE
  8
BLOCCO1_ROOM407
 62
 10
 10
       -4.10300
 20
        7.44900
 30
        0.90000
 40
        0.20000
999
BLOCCO1:ROOM408:DayRefPt:1
  0
CIRCLE
  8
BLOCCO1_ROOM408
 62
 10
 10
       -4.10300
 20
       -2.55600
 30
        0.90000
 40
        0.20000
999
BLOCCO1:CORRIDOIO:DEDayRefPt:1
  0
CIRCLE
  8
BLOCCO1_CORRIDOIO
 62
 10
 10
       -4.10300
 20
        2.44700
 30
        0.90000
 40
        0.20000
999
BLOCCO1:ROOM407:DEDayRefPt:1
  0
CIRCLE
  8
BLOCCO1_ROOM407
 62
 10
 10
       -4.10300
 20
        7.44900
 30
        0.90000
 40
        0.20000
999
BLOCCO1:ROOM408:DEDayRefPt:1
  0
CIRCLE
  8
BLOCCO1_ROOM408
 62
 10
 10
       -4.10300
 20
       -2.55600
 30
        0.90000
 40
        0.20000
  0
ENDSEC
  0
EOF
