Program Version,EnergyPlus, Version 9.0.1-bb7ca4f0da, YMD=2020.01.15 00:28
